Version 4
SHEET 1 880 680
WIRE -304 32 -336 32
WIRE -208 32 -224 32
WIRE 160 32 -208 32
WIRE 512 32 160 32
WIRE 512 64 512 32
WIRE 160 80 160 32
WIRE -208 96 -208 32
WIRE -16 128 -144 128
WIRE 32 128 -16 128
WIRE 48 128 32 128
WIRE 288 128 272 128
WIRE 368 128 352 128
WIRE -336 192 -336 32
WIRE -144 192 -144 128
WIRE 368 192 368 128
WIRE 368 192 272 192
WIRE 400 192 368 192
WIRE 512 192 512 144
WIRE 512 192 480 192
WIRE 544 192 512 192
WIRE 656 192 624 192
WIRE 752 192 656 192
WIRE -16 208 -16 128
WIRE 656 240 656 192
WIRE 752 240 752 192
WIRE 368 256 368 192
WIRE 512 256 512 192
WIRE 32 272 32 128
WIRE 112 272 112 240
WIRE 112 272 32 272
WIRE -336 384 -336 272
WIRE -208 384 -208 176
WIRE -208 384 -336 384
WIRE -144 384 -144 272
WIRE -144 384 -208 384
WIRE -16 384 -16 272
WIRE -16 384 -144 384
WIRE 208 384 208 240
WIRE 208 384 -16 384
WIRE 368 384 368 320
WIRE 368 384 208 384
WIRE 512 384 512 320
WIRE 512 384 368 384
WIRE 656 384 656 304
WIRE 656 384 512 384
WIRE 752 384 752 320
WIRE 752 384 656 384
WIRE 208 400 208 384
FLAG 208 400 0
SYMBOL ZZZ\\Sw_Reg_add\\LM2678xx 160 160 R0
SYMATTR InstName U1
SYMATTR Value LM2678ADJ
SYMBOL voltage -144 176 R0
WINDOW 123 0 0 Left 2
WINDOW 39 24 124 Left 2
SYMATTR SpiceLine Rser=0.1
SYMATTR InstName V1
SYMATTR Value 30
SYMBOL cap 352 112 R90
WINDOW 0 0 32 VBottom 2
WINDOW 3 32 32 VTop 2
SYMATTR InstName C1
SYMATTR Value 10n
SYMBOL schottky 384 320 R180
WINDOW 0 24 64 Left 2
WINDOW 3 24 0 Left 2
SYMATTR InstName D1
SYMATTR Value SS39
SYMATTR Description Diode
SYMATTR Type diode
SYMBOL ind 384 208 R270
WINDOW 0 32 56 VTop 2
WINDOW 3 5 56 VBottom 2
SYMATTR InstName L1
SYMATTR Value 33µ
SYMBOL cap 496 256 R0
SYMATTR InstName C2
SYMATTR Value 100µ
SYMATTR SpiceLine Rser=0.028
SYMBOL cap -32 208 R0
SYMATTR InstName C3
SYMATTR Value 100µ
SYMBOL res 736 224 R0
SYMATTR InstName R1
SYMATTR Value 5
SYMBOL res 496 48 R0
SYMATTR InstName R2
SYMATTR Value 12k
SYMBOL voltage -336 176 R0
WINDOW 123 0 0 Left 2
WINDOW 39 0 0 Left 2
SYMATTR InstName V2
SYMATTR Value 0.2
SYMBOL res -208 16 R90
WINDOW 0 0 56 VBottom 2
WINDOW 3 32 56 VTop 2
SYMATTR InstName R3
SYMATTR Value 1k
SYMBOL res -224 80 R0
SYMATTR InstName R4
SYMATTR Value 2.2k
SYMBOL ind 528 208 R270
WINDOW 0 32 56 VTop 2
WINDOW 3 5 56 VBottom 2
SYMATTR InstName L2
SYMATTR Value 5µ
SYMATTR SpiceLine Rser=0.01
SYMBOL cap 640 240 R0
SYMATTR InstName C4
SYMATTR Value 3µ
SYMATTR SpiceLine Rser=0.01
TEXT -128 0 Left 2 !.tran 2000u startup uic
