Version 4
SHEET 1 1636 680
WIRE -288 -192 -352 -192
WIRE 96 -192 -288 -192
WIRE -352 -160 -352 -192
WIRE -880 -144 -976 -144
WIRE -576 -144 -880 -144
WIRE 96 -144 96 -192
WIRE -576 -96 -576 -144
WIRE -880 -48 -880 -144
WIRE -976 16 -976 -144
WIRE 96 32 96 -64
WIRE 160 32 96 32
WIRE 272 32 224 32
WIRE -576 48 -576 -16
WIRE -544 48 -576 48
WIRE -432 48 -480 48
WIRE -272 48 -432 48
WIRE -160 48 -192 48
WIRE -48 48 -160 48
WIRE -576 80 -576 48
WIRE 96 80 96 32
WIRE 272 96 272 32
WIRE 304 96 272 96
WIRE 416 96 384 96
WIRE 448 96 416 96
WIRE 560 96 528 96
WIRE 592 96 560 96
WIRE 704 96 672 96
WIRE 736 96 704 96
WIRE 848 96 816 96
WIRE -288 112 -288 -192
WIRE -160 112 -160 48
WIRE -752 128 -832 128
WIRE -656 128 -672 128
WIRE -432 128 -432 48
WIRE -48 128 -48 48
WIRE 16 128 -48 128
WIRE 272 144 272 96
WIRE 416 144 416 96
WIRE 560 144 560 96
WIRE 848 144 848 96
WIRE -832 160 -832 128
WIRE 704 160 704 96
WIRE -48 176 -48 128
WIRE -976 272 -976 96
WIRE -880 272 -880 16
WIRE -880 272 -976 272
WIRE -832 272 -832 240
WIRE -832 272 -880 272
WIRE -576 272 -576 176
WIRE -576 272 -832 272
WIRE -432 272 -432 192
WIRE -432 272 -576 272
WIRE -352 272 -352 -80
WIRE -352 272 -432 272
WIRE -288 272 -288 176
WIRE -288 272 -352 272
WIRE -160 272 -160 192
WIRE -160 272 -288 272
WIRE -48 272 -48 240
WIRE -48 272 -160 272
WIRE 96 272 96 176
WIRE 96 272 -48 272
WIRE 272 272 272 208
WIRE 272 272 96 272
WIRE 416 272 416 208
WIRE 416 272 272 272
WIRE 560 272 560 208
WIRE 560 272 416 272
WIRE 704 272 704 224
WIRE 704 272 560 272
WIRE 848 272 848 224
WIRE 848 272 704 272
WIRE -576 304 -576 272
FLAG -576 304 0
SYMBOL voltage -832 144 R0
WINDOW 123 0 0 Left 2
WINDOW 39 1 105 Left 2
WINDOW 3 -172 150 Left 2
SYMATTR SpiceLine Rser=0.5
SYMATTR Value PULSE(0 12 36n 0 0 36n 73n)
SYMATTR InstName V1
SYMBOL voltage -976 0 R0
WINDOW 123 0 0 Left 2
WINDOW 39 12 122 Left 2
SYMATTR SpiceLine Rser=0.1
SYMATTR InstName V2
SYMATTR Value 14
SYMBOL res 832 128 R0
SYMATTR InstName R1
SYMATTR Value 50
SYMBOL ind 288 112 R270
WINDOW 0 32 56 VTop 2
WINDOW 3 5 56 VBottom 2
SYMATTR InstName L3
SYMATTR Value 180n
SYMBOL cap 400 144 R0
SYMATTR InstName C2
SYMATTR Value 600p
SYMBOL ind 432 112 R270
WINDOW 0 32 56 VTop 2
WINDOW 3 5 56 VBottom 2
SYMATTR InstName L4
SYMATTR Value 400n
SYMBOL cap 544 144 R0
SYMATTR InstName C3
SYMATTR Value 300p
SYMBOL cap 224 16 R90
WINDOW 0 0 32 VBottom 2
WINDOW 3 41 32 VTop 2
SYMATTR InstName C4
SYMATTR Value 47n
SYMBOL ind 576 112 R270
WINDOW 0 32 56 VTop 2
WINDOW 3 5 56 VBottom 2
SYMATTR InstName L5
SYMATTR Value 540n
SYMBOL cap 688 160 R0
SYMATTR InstName C5
SYMATTR Value 200p
SYMBOL cap 256 144 R0
SYMATTR InstName C1
SYMATTR Value 0p
SYMBOL cap -304 112 R0
SYMATTR InstName C6
SYMATTR Value 1000n
SYMBOL res -176 96 R0
SYMATTR InstName R2
SYMATTR Value 75
SYMBOL ind2 80 -160 R0
SYMATTR InstName L6
SYMATTR Value 9µ
SYMATTR Type ind
SYMBOL voltage -352 -176 R0
WINDOW 123 0 0 Left 2
WINDOW 39 24 124 Left 2
SYMATTR SpiceLine Rser=1
SYMATTR InstName V3
SYMATTR Value 26
SYMBOL cap -896 -48 R0
SYMATTR InstName C8
SYMATTR Value 1000n
SYMBOL ind 720 112 R270
WINDOW 0 32 56 VTop 2
WINDOW 3 5 56 VBottom 2
SYMATTR InstName L7
SYMATTR Value 50n
SYMBOL ZZZ\\MOS\\IRF\\NMOSFET\\irf510 -608 128 R0
WINDOW 0 -38 -62 Left 2
WINDOW 3 37 66 Left 2
SYMATTR InstName U2
SYMBOL cap -480 32 R90
WINDOW 0 0 32 VBottom 2
WINDOW 3 32 32 VTop 2
SYMATTR InstName C7
SYMATTR Value 30n
SYMBOL ind2 -592 -112 R0
SYMATTR InstName L1
SYMATTR Value 9µ
SYMATTR Type ind
SYMBOL cap -448 128 R0
SYMATTR InstName C15
SYMATTR Value 200p
SYMBOL ind2 -288 64 R270
WINDOW 0 32 56 VTop 2
WINDOW 3 4 56 VBottom 2
SYMATTR InstName L2
SYMATTR Value 200n
SYMATTR Type ind
SYMATTR SpiceLine Rser=0.1
SYMBOL schottky -32 240 R180
WINDOW 0 24 64 Left 2
WINDOW 3 24 0 Left 2
SYMATTR InstName D2
SYMATTR Value 1N5819
SYMATTR Description Diode
SYMATTR Type diode
SYMBOL ZZZ\\MOS\\ST\\Nmos_ST 64 128 R0
WINDOW 0 43 56 Left 2
SYMATTR InstName U1
SYMATTR SpiceModel STP19NF20
SYMBOL res -768 144 R270
WINDOW 0 32 56 VTop 2
WINDOW 3 0 56 VBottom 2
SYMATTR InstName R3
SYMATTR Value 4.4
TEXT -880 -200 Left 2 !.tran 0 50u 49.2u 1n startup
