Version 4
SHEET 1 1636 680
WIRE 464 -192 64 -192
WIRE 608 -192 544 -192
WIRE 880 -192 848 -192
WIRE 1152 -192 944 -192
WIRE 1184 -192 1152 -192
WIRE 608 -160 608 -192
WIRE 704 -160 608 -160
WIRE 848 -160 848 -192
WIRE 848 -160 784 -160
WIRE 848 -144 848 -160
WIRE 880 -144 848 -144
WIRE 992 -144 944 -144
WIRE 1056 -144 992 -144
WIRE 1152 -144 1152 -192
WIRE -496 -128 -592 -128
WIRE -208 -128 -496 -128
WIRE 272 -128 160 -128
WIRE 384 -128 272 -128
WIRE 608 -128 608 -160
WIRE 1056 -128 1056 -144
WIRE 64 -96 64 -192
WIRE 160 -96 160 -128
WIRE -208 -80 -208 -128
WIRE 384 -80 384 -128
WIRE -496 -48 -496 -128
WIRE 272 -48 272 -128
WIRE 608 -32 608 -64
WIRE 1056 -32 1056 -64
WIRE 1056 -32 608 -32
WIRE 1152 -32 1152 -80
WIRE 1152 -32 1056 -32
WIRE 1200 -16 1088 -16
WIRE 1280 -16 1264 -16
WIRE 64 0 64 -16
WIRE 608 0 608 -32
WIRE -592 16 -592 -128
WIRE 384 32 384 0
WIRE 432 32 384 32
WIRE 528 32 496 32
WIRE 992 32 992 -144
WIRE 1088 32 1088 -16
WIRE 1088 32 1072 32
WIRE 1104 32 1088 32
WIRE 1184 32 1184 -192
WIRE -208 48 -208 0
WIRE -192 48 -208 48
WIRE -64 48 -128 48
WIRE -32 48 -64 48
WIRE 96 48 48 48
WIRE 224 48 96 48
WIRE 304 48 224 48
WIRE -208 80 -208 48
WIRE 384 80 384 32
WIRE 528 96 528 32
WIRE 576 96 528 96
WIRE 688 96 656 96
WIRE 736 96 688 96
WIRE 864 96 816 96
WIRE 896 96 864 96
WIRE 1024 96 976 96
WIRE 1056 96 1024 96
WIRE 1280 96 1280 -16
WIRE 1280 96 1136 96
WIRE 96 112 96 48
WIRE 1280 112 1280 96
WIRE -288 128 -416 128
WIRE 304 128 304 48
WIRE 528 144 528 96
WIRE 688 144 688 96
WIRE 864 144 864 96
WIRE -416 160 -416 128
WIRE -64 160 -64 48
WIRE 224 160 224 48
WIRE 1024 160 1024 96
WIRE 1168 208 1152 208
WIRE 1280 208 1280 192
WIRE 1280 208 1248 208
WIRE -592 272 -592 96
WIRE -496 272 -496 16
WIRE -496 272 -592 272
WIRE -416 272 -416 240
WIRE -416 272 -496 272
WIRE -208 272 -208 176
WIRE -208 272 -416 272
WIRE -64 272 -64 224
WIRE -64 272 -208 272
WIRE 96 272 96 192
WIRE 96 272 -64 272
WIRE 160 272 160 -16
WIRE 160 272 96 272
WIRE 224 272 224 224
WIRE 224 272 160 272
WIRE 272 272 272 16
WIRE 272 272 224 272
WIRE 384 272 384 176
WIRE 384 272 272 272
WIRE 528 272 528 208
WIRE 528 272 384 272
WIRE 688 272 688 208
WIRE 688 272 528 272
WIRE 864 272 864 208
WIRE 864 272 688 272
WIRE 1024 272 1024 224
WIRE 1024 272 864 272
WIRE 1056 272 1024 272
WIRE 1152 272 1152 208
WIRE 1152 272 1136 272
WIRE 1184 272 1152 272
WIRE 1280 272 1280 208
WIRE 1280 272 1248 272
WIRE -208 304 -208 272
FLAG -208 304 0
FLAG 608 0 0
FLAG 64 0 0
SYMBOL voltage -416 144 R0
WINDOW 123 0 0 Left 2
WINDOW 39 1 105 Left 2
WINDOW 3 -146 151 Left 2
WINDOW 0 40 37 Left 2
SYMATTR SpiceLine Rser=5
SYMATTR Value PULSE(0 12 0 0 0 36n 73n)
SYMATTR InstName V1
SYMBOL ind2 -224 -96 R0
WINDOW 0 36 26 Left 2
WINDOW 3 -29 84 Left 2
SYMATTR InstName L1
SYMATTR Value 4.7µ
SYMATTR Type ind
SYMBOL voltage -592 0 R0
WINDOW 123 0 0 Left 2
WINDOW 39 12 122 Left 2
SYMATTR SpiceLine Rser=1
SYMATTR InstName V2
SYMATTR Value 12
SYMBOL res 1264 96 R0
SYMATTR InstName R1
SYMATTR Value {R1}
SYMBOL ind 560 112 R270
WINDOW 0 32 56 VTop 2
WINDOW 3 5 56 VBottom 2
SYMATTR InstName L3
SYMATTR Value 180n
SYMBOL cap 672 144 R0
SYMATTR InstName C2
SYMATTR Value 800p
SYMBOL ind 720 112 R270
WINDOW 0 32 56 VTop 2
WINDOW 3 5 56 VBottom 2
SYMATTR InstName L4
SYMATTR Value 400n
SYMBOL cap 848 144 R0
SYMATTR InstName C3
SYMATTR Value 250p
SYMBOL cap 496 16 R90
WINDOW 0 0 32 VBottom 2
WINDOW 3 32 32 VTop 2
SYMATTR InstName C4
SYMATTR Value 30n
SYMBOL ind 880 112 R270
WINDOW 0 32 56 VTop 2
WINDOW 3 5 56 VBottom 2
SYMATTR InstName L5
SYMATTR Value 540n
SYMBOL cap 1008 160 R0
SYMATTR InstName C5
SYMATTR Value 300p
SYMBOL cap 512 144 R0
SYMATTR InstName C1
SYMATTR Value 0p
SYMBOL cap 256 -48 R0
SYMATTR InstName C6
SYMATTR Value 1000n
SYMBOL res 80 96 R0
SYMATTR InstName R2
SYMATTR Value 75
SYMBOL ind2 368 -96 R0
SYMATTR InstName L6
SYMATTR Value 4.7µ
SYMATTR Type ind
SYMBOL voltage 160 -112 R0
WINDOW 123 0 0 Left 2
WINDOW 39 24 124 Left 2
SYMATTR SpiceLine Rser=1
SYMATTR InstName V3
SYMATTR Value 20
SYMBOL cap -512 -48 R0
SYMATTR InstName C8
SYMATTR Value 1000n
SYMBOL ind2 1040 112 R270
WINDOW 0 32 56 VTop 2
WINDOW 3 5 56 VBottom 2
SYMATTR InstName L7
SYMATTR Value 50n
SYMATTR Type ind
SYMBOL ZZZ\\MOS\\IRF\\NMOSFET\\irf510 -240 128 R0
WINDOW 0 -38 -62 Left 2
SYMATTR InstName U2
SYMBOL cap -128 32 R90
WINDOW 0 0 32 VBottom 2
WINDOW 3 32 32 VTop 2
SYMATTR InstName C7
SYMATTR Value 30n
SYMBOL ind -48 64 R270
WINDOW 0 32 56 VTop 2
WINDOW 3 5 56 VBottom 2
SYMATTR InstName L2
SYMATTR Value 120n
SYMBOL cap -80 160 R0
SYMATTR InstName C9
SYMATTR Value 200p
SYMBOL schottky 240 224 R180
WINDOW 0 24 64 Left 2
WINDOW 3 24 0 Left 2
SYMATTR InstName D1
SYMATTR Value 1N5819
SYMATTR Description Diode
SYMATTR Type diode
SYMBOL ZZZ\\MOS\\IRF\\NMOSFET\\irfib7n50l 352 128 R0
SYMATTR InstName U1
SYMBOL ind2 1088 16 R90
WINDOW 0 4 56 VBottom 2
WINDOW 3 32 56 VTop 2
SYMATTR InstName L8
SYMATTR Value 9µ
SYMATTR Type ind
SYMBOL ind2 1200 16 R90
WINDOW 0 4 56 VBottom 2
WINDOW 3 32 56 VTop 2
SYMATTR InstName L9
SYMATTR Value 9µ
SYMATTR Type ind
SYMBOL diode 880 -176 R270
WINDOW 0 32 32 VTop 2
WINDOW 3 0 32 VBottom 2
SYMATTR InstName D2
SYMATTR Value MMSD4148
SYMBOL diode 944 -160 R90
WINDOW 0 0 32 VBottom 2
WINDOW 3 32 32 VTop 2
SYMATTR InstName D3
SYMATTR Value MMSD4148
SYMBOL diode 1136 -144 R0
SYMATTR InstName D4
SYMATTR Value MMSD4148
SYMBOL diode 1072 -64 R180
WINDOW 0 27 61 Left 2
WINDOW 3 24 0 Left 2
SYMATTR InstName D5
SYMATTR Value MMSD4148
SYMBOL cap 592 -128 R0
SYMATTR InstName C10
SYMATTR Value 22n
SYMBOL res 800 -176 R90
WINDOW 0 0 56 VBottom 2
WINDOW 3 32 56 VTop 2
SYMATTR InstName R4
SYMATTR Value 47
SYMBOL cap 1264 -32 R90
WINDOW 0 0 32 VBottom 2
WINDOW 3 32 32 VTop 2
SYMATTR InstName C12
SYMATTR Value 20p
SYMBOL cap 1248 256 R90
WINDOW 0 58 49 VBottom 2
WINDOW 3 28 -12 VTop 2
SYMATTR InstName C13
SYMATTR Value 730p
SYMBOL ind 1152 256 R90
WINDOW 0 5 56 VBottom 2
WINDOW 3 32 56 VTop 2
SYMATTR InstName L10
SYMATTR Value {L10}
SYMBOL voltage 64 -112 R0
WINDOW 123 0 0 Left 2
WINDOW 39 24 44 Left 2
SYMATTR InstName V4
SYMATTR Value 1.2
SYMBOL res 560 -208 R90
WINDOW 0 0 56 VBottom 2
WINDOW 3 32 56 VTop 2
SYMATTR InstName R7
SYMATTR Value 1k
SYMBOL res 1152 224 R270
WINDOW 0 33 27 VTop 2
WINDOW 3 61 71 VBottom 2
SYMATTR InstName R3
SYMATTR Value {R3}
TEXT -176 296 Left 2 !.tran 0 50u 49.2u 1n startup
TEXT 784 8 Left 2 !K1 L7 L8 L9 0.95
TEXT -592 -224 Left 2 !.step param Rx list 1 2 3\n.param R1 table(Rx,1,42,2,55,3,12)\n.param R3 table(Rx,1,0.1,2,1G,3,0.1)\n.param L10 table(Rx,1,153n,2,0.1n,3,280n)
